**$ENCRYPTED_LIB
**$INTERFACE
* source LMG1020
*
*****************************************************************************
* (C) Copyright 2017 Texas Instruments Incorporated. All rights reserved.                                            
*****************************************************************************
** This model is designed as an aid for customers of Texas Instruments.                                             
** TI and its licensors and suppliers make no warranties, either expressed                                           
** or implied, with respect to this model, including the warranties of                                                    
** merchantability or fitness for a particular purpose. The model is                                                      
** provided solely on an "as is" basis. The entire risk as to its quality                                                    
** and performance is with the customer.                                                                                         
*****************************************************************************
*
* Released by: WEBENCH Design Center, Texas Instruments Inc.
* Part: LMG1020
* Date: 1/20/2017
* Model Type: Transient 
* Simulator: PSPICE
* Simulator Version: 16.2
* EVM Order Number: 
* EVM Users Guide: 
* Datasheet: November 15, 2016
* Model Version: Final 1.0
* Release to Web.
****************************************************************
* Delay time, rise/fall time. current sink and source are 
* included. No thermal feature nor quiesent current are modeled.
************
*$
.SUBCKT LMG1020 VDD GND  INP OUTH OUTL INM

$CDNENCSTART
eee8c5c7a2bc4b01f045f303678664e7916da0bae22e8cb0bba041dd67c69ce448ea70148a9ac1670c8926c1ac5057c8ccfcd77bf87ca9dc992c008e3142f52f
7fddbcf0398fb471eb87848776396383ea2543307f9d85c99d6d2e90130298150525944b9d2bff2a0ae8dbc3f82a0817448d2074a2564329d40078e256356f25
96cc4b5209c35bf775963efd3ee34e160024d804c4775bfd4a40ff3c1bc4ce1e8fed7716d279a0e4aa8184d9e000f1d99d74d043bbbafe51975a11649c54fb91
cdaa385411811e27bfd81d659a09e4b32637e9cac2aa5cea2cecad1ebf804c4bf467148f06ca8e43e0425a70fbdb64ada6e7cdc391a18cc3c0a4fb38ff6ae09e
1c731b84bbf73e40307ed197beee78e7ef18b0d89acfb78530b80dd8136e04fea0993cfdcb831996fb58f1c99d972d2fa3302d6afe9c3616d510b514bd0830be
4dd15f869bbc74bf6fb94a54e37d990782bc11a0da97c082f0b3cc3c3475c8229758f3c11556cd60aa5027d85f633e4cc9322890ded6647bf67f59a8cb00d779
469899a92f81b9ab507017c8611847d00024d804c4775bfd4a40ff3c1bc4ce1e8fed7716d279a0e4aa8184d9e000f1d99d74d043bbbafe51975a11649c54fb91
a7bfe7383fc9b149006522d0d2338f410024d804c4775bfd4a40ff3c1bc4ce1e8fed7716d279a0e4aa8184d9e000f1d99d74d043bbbafe51975a11649c54fb91
824d6e3cf5218826be8aa52bab3bed23ab425f146ee4807130c0ab89700093f75ab6b9ff4b85e25030c0ab89700093f7c57d61971eaf22349d6bedf9d0034ac8
1c731b84bbf73e4062a41c6d3b35aeb6ab425f146ee4807130c0ab89700093f7e09a36b709f46e4e3766e5f7963b38a2345a03264f6ba9e49d6bedf9d0034ac8
4dd15f869bbc74bf1f0568521186dd06070ad78826a995def540f2c7a0b281c1a0163ed34ff0adcfed66bb6fa42d5ad1c9322890ded6647bf67f59a8cb00d779
469899a92f81b9ab507017c8611847d00024d804c4775bfd4a40ff3c1bc4ce1e8fed7716d279a0e4aa8184d9e000f1d99d74d043bbbafe51975a11649c54fb91
a7bfe7383fc9b149809b18f08349b41a0024d804c4775bfd4a40ff3c1bc4ce1e8fed7716d279a0e4aa8184d9e000f1d99d74d043bbbafe51975a11649c54fb91
1c731b84bbf73e4084958eade37b5f8582bc11a0da97c082f0b3cc3c3475c822e8a421f58aad2db122fd028d77203b01a16489ae352cdf17d38aff4e12555a5d
824d6e3cf5218826630d1a00ef22a593ab425f146ee4807130c0ab89700093f7c1bc9772450d5b5273eac50d86462cc6bf1ee911780421dd992c008e3142f52f
1c731b84bbf73e406203455d25f3345e070ad78826a995def540f2c7a0b281c1b911f80a22f8e1bb1a8f5f535888730bb577a971e6df387803f554f70826382d
824d6e3cf5218826c5eeb317fcf668b082bc11a0da97c082f0b3cc3c3475c822a359c61c3da70e7522fd028d77203b01d5eb8864caed2c24d38aff4e12555a5d
30e03dc29a33abcf4156f2188e643a6682bc11a0da97c082f0b3cc3c3475c822e8a421f58aad2db122fd028d77203b011aba4afbc304a8216a24896353903a61
19b5e68ae64c6977706b807646b803710024d804c4775bfd4a40ff3c1bc4ce1e8fed7716d279a0e4aa8184d9e000f1d99d74d043bbbafe51975a11649c54fb91
30e03dc29a33abcf589df760617f04cc82bc11a0da97c082f0b3cc3c3475c822a561fcd425465a2e22fd028d77203b019e5612041cd20b426094095b06f9ffdf
19b5e68ae64c6977706b807646b803710024d804c4775bfd4a40ff3c1bc4ce1e8fed7716d279a0e4aa8184d9e000f1d99d74d043bbbafe51975a11649c54fb91
4dd15f869bbc74bfaae2ebdcb283584982bc11a0da97c08222fd028d77203b0174ab1c3b78c5c802b06de348600848c063a291d1ce8ae1c119fd7cf670f17f10
824d6e3cf5218826c5ec76be97959ce740fc25baf84dde5f8bbe90f951374532d6dd2292cf0f3c4ecf5292ed199d2724644126c9831a96bde7541210f46e2e1e
1de8291e0a14f8c35f98cc55d3e39e53ab425f146ee48071b5fe9990add9cf213acf72f8ee5c1118666142df6f3fa813d7ccd1cce9e1714edd6e6665f6bbd9d4
4422db446da1c752f4c57f55494dfc8ee847dda77d5f9443baf8c6e0aab24bd3c8e0b5bb780fb1e4f98333272b17f574adb6ce9bc95f35e47f2b177732bf36da
4b6085f2012636675a0aa31c52cddba96f3cfcaeffdc76adf79742480b1854357ba5205a1e390ba54a197208db6df66021d23b968cda3d875c640d2d694322f2
7fddbcf0398fb471b585b96681e0ca9bc27107b6faeb91f813fe015c112746272f842a35f7bb4d3bfa460eccc75cda6d88b96b7c831faa4af2d5e5299905ab7b
a68ba69006c80e09157dcbb6421b1256bf3f31291caf3663526ac06e611ac060757ac86a2bcbfc05308f61107f1b90c8e0cde779d836e738b7ede4d279fb2c98
4b6085f2012636675a0aa31c52cddba976617f42cd5d956bbaf8c6e0aab24bd3c8e0b5bb780fb1e4f98333272b17f574adb6ce9bc95f35e47f2b177732bf36da
4a309ff44c23745a706b807646b80371e260217033270c8cb7d63f6b74b36903bf5ac0f712a46aedcb33bec18cab84518c7e812bed1108d83e901aa5a6731325
cafffde955b129d1706b807646b80371aaec237d412f3bf9c2faef6fe188a5caa3302d6afe9c36164a5351eee156b22f1330d0699ed6603e6d8075e914438cbd
1339ebcfbd17a829a665d0fac02ce03eeceb92add8fc66abc5c7090ddbb8c2f7b577a971e6df3878de10149cf9a3173e9b1980ce17fa72f6d4442a62abf8d2a9
876260bcb12753aa706b807646b80371e260217033270c8c2accf4d1554d0305b703be313a4f7cd7cb33bec18cab84518c7e812bed1108d83e901aa5a6731325
b0bb9be0e85b5a40a665d0fac02ce03e55cd894b70a5bdf2b85403d979be4558644126c9831a96bdbaf8c6e0aab24bd3c8e0b5bb780fb1e49bb364c10a1e9048
9fa6902d02d156939f50c449b546348cb6523b932fec2ec6a34d5b582786706266eaeb9fc4cc8ae1d5afba595d29464edd3e65088ae1d7319d6bedf9d0034ac8
99462f8dbe8e04fb5974cdc39aee6290a39ee716ba7bc2598675a01b2db95be7cb33bec18cab84518c7e812bed1108d8d1d346020cc7f99b80829a97bf879e0a
7fddbcf0398fb471cc0121b5e20e20766440c638f63ad9e49d6d2e90130298155acf798c8e3bb4856b9ed09b9577f21826888267be4d4fc6c3e12878f10903f6
96cc4b5209c35bf775963efd3ee34e160024d804c4775bfd4a40ff3c1bc4ce1e8fed7716d279a0e4aa8184d9e000f1d99d74d043bbbafe51975a11649c54fb91
cdaa385411811e27bfd81d659a09e4b32637e9cac2aa5cea2cecad1ebf804c4bf467148f06ca8e43e0425a70fbdb64ada6e7cdc391a18cc3c0a4fb38ff6ae09e
ac0dae44e8446f76823675f86900452582bc11a0da97c08273d773a36469a267ea610e3d321a1ff27437b50e075626370024d804c4775bfdeafeeeaf5cfc0f05
75729092b0fbcbec7cb2ae44d8d35651ab425f146ee48071d237d0ac66474d2ccda6cf0049977e4e1b5eb39983d55e0173d773a36469a267f4a24390aeec3b66
6bfd866b6dd774fd883f1bb72585e0c1b577a971e6df3878de10149cf9a3173e9b1980ce17fa72f6a7f684fbbda73c6cda39f6ee4c18781d8d71c6ab3b003f5e
fd80f3b49cb1eb4ba286ab8191b330075911b2e9db277617a5257eba54077ab5021166ac3753b7b831bbfa71d5efb6fe825b843a3aa9ddcdaa64a2fc08c3c2cd
ac0dae44e8446f76f277f918e4ac9ec782bc11a0da97c08273d773a36469a26707c6f1ce0073d0315496bf8d906592fd0024d804c4775bfdeafeeeaf5cfc0f05
429a790788b0a8f0706b807646b80371e260217033270c8ca286f6d3dba7c4bebf5ac0f712a46aedcb33bec18cab84518c7e812bed1108d83e901aa5a6731325
e03abe3ff0b246a3706b807646b803712d1fa677b5bc3a757c01e406ff234bcacb33bec18cab84518c7e812bed1108d8d1d346020cc7f99b80829a97bf879e0a
4dca6e06dc14cdb3a665d0fac02ce03ec27107b6faeb91f84cfb50724db6ff282f842a35f7bb4d3b58e91a6c2a19abee1737d396bd97bbcd50794576b4f63d0d
48cb863e8795f27e1933952b4dcad44c0024d804c4775bfd4a40ff3c1bc4ce1e8fed7716d279a0e4aa8184d9e000f1d99d74d043bbbafe51975a11649c54fb91
bbf0a766f49a242c2637e9cac2aa5cea2cecad1ebf804c4bf467148f06ca8e43e0425a70fbdb64ada6e7cdc391a18cc3d91bf9458cc2df95e68daa76188faaff
af60366486687281a665d0fac02ce03e59c6d48b68fae16927ef2eea90d49b453f2b058804cd93cbb577a971e6df3878de10149cf9a3173ee8b3f420aa91be5d
7fddbcf0398fb471f6a2b547dc976ba0c27107b6faeb91f81ee5066c75731eb4db99e06255366713fa460eccc75cda6d88b96b7c831faa4af2d5e5299905ab7b
a68ba69006c80e09157dcbb6421b1256bf3f31291caf3663526ac06e611ac060757ac86a2bcbfc05308f61107f1b90c8e0cde779d836e738b7ede4d279fb2c98
4b6085f2012636675a0aa31c52cddba976617f42cd5d956bbaf8c6e0aab24bd3c8e0b5bb780fb1e4f98333272b17f574adb6ce9bc95f35e47f2b177732bf36da
2cfd781695004e38fa1c429fe3b3cf3da24fbde9ab2b7e88f40167d173e497beb577a971e6df3878de10149cf9a3173e9b1980ce17fa72f6d4442a62abf8d2a9


$CDNENCFINISH
.ends LMG1020
*$

** Wrapper definitions for AA legacy support **
**** ALL DIGITAL GATES***********
******************************************************************************
******************************************************************************

.SUBCKT D_D1 1 2
$CDNENCSTART
eee8c5c7a2bc4b01f045f303678664e7916da0bae22e8cb0bba041dd67c69ce448ea70148a9ac1670c8926c1ac5057c8ccfcd77bf87ca9dc992c008e3142f52f
b3390a098a7d87064e46dd92806239d2e0425a70fbdb64ada6e7cdc391a18cc3d91bf9458cc2df9535e2745c8b375ac336ceb48afeafb93a9adc7f7bedeebe0d
d7072740a938f0e752008c48b90a111404d36cec99b77dc0a7f03d1e581742ea8b798ad314fde7ff78bb0ee6e0e668e4b577a971e6df387803f554f70826382d
$CDNENCFINISH
.ENDS D_D1
*$
.subckt d_d 1 2
$CDNENCSTART
eee8c5c7a2bc4b01f045f303678664e7916da0bae22e8cb0bba041dd67c69ce448ea70148a9ac1670c8926c1ac5057c8ccfcd77bf87ca9dc992c008e3142f52f
1580a2664af5c9b79ba351c972f8011bbaf8c6e0aab24bd3c8e0b5bb780fb1e4f98333272b17f574adb6ce9bc95f35e4869d3e0a5a548e956cccace19bf7c380
0697746efb67a3a37eef396dcc27bc37bf3f31291caf3663526ac06e611ac060757ac86a2bcbfc05308f61107f1b90c8e0cde779d836e738b7ede4d279fb2c98
f7a854a98d732f8b65b706867a9136e6bf3f31291caf3663526ac06e611ac060757ac86a2bcbfc05308f61107f1b90c8e0cde779d836e738b7ede4d279fb2c98
017be230402273590024d804c4775bfd4a40ff3c1bc4ce1e8fed7716d279a0e4aa8184d9e000f1d99d74d043bbbafe511139cf68243ad3794c41819be8801e76
39c84b0c9f72e0078e024cbd033ee0afbf3f31291caf3663526ac06e611ac060757ac86a2bcbfc05308f61107f1b90c8e0cde779d836e738b7ede4d279fb2c98
$CDNENCFINISH
.ends d_d

.model PMOS01 pmos 


+ vto=-2
+ kp=1.11
+ lambda=0.001


.model NMOS01 nmos 


+ vto=2
+ kp=1.55
+ lambda=0.001

*$
.SUBCKT COMP_BASIC_GEN INP INM Y PARAMS: VDD=1 VSS=0 VTHRESH=0.5	
$CDNENCSTART
eee8c5c7a2bc4b01f045f303678664e7916da0bae22e8cb0bba041dd67c69ce448ea70148a9ac1670c8926c1ac5057c8ccfcd77bf87ca9dc992c008e3142f52f
324d0b28bd3976fec3fa3d1e401a4503c7cd3c6de157579e2a235350161d1bcb644126c9831a96bdbaf8c6e0aab24bd3c8e0b5bb780fb1e49bb364c10a1e9048
31a245cc4f39b9f1af5040d5c61521d091d34273a8fcd1ded37d05aff6092333fb90342d701d1b9d264a93345a873ca2d0c8de2544e8267eb3d58088c0884163
3b7f5ebe940d64624170694978eb4cf8bf3f31291caf3663526ac06e611ac060757ac86a2bcbfc05308f61107f1b90c8e0cde779d836e738b7ede4d279fb2c98
b076ff8d9576189163285b2908224391baf8c6e0aab24bd3c8e0b5bb780fb1e4f98333272b17f574adb6ce9bc95f35e4869d3e0a5a548e956cccace19bf7c380
$CDNENCFINISH
.ENDS COMP_BASIC_GEN
*$
.SUBCKT COMPHYS_BASIC_GEN INP INM HYS OUT PARAMS: VDD=1 VSS=0 VTHRESH=0.5	
$CDNENCSTART
eee8c5c7a2bc4b01f045f303678664e7916da0bae22e8cb0bba041dd67c69ce448ea70148a9ac1670c8926c1ac5057c8ccfcd77bf87ca9dc992c008e3142f52f
9132b7121104d4358be44c41ab888f41b6e3a1568843d8670024d804c4775bfd4a40ff3c1bc4ce1e8fed7716d279a0e4aa8184d9e000f1d9af98308d4a335f89
70d49a25931fcad5af5f0f227a33dfc56b574213c15e8d8904d73209bd6cb354e07469d76c73f504727902e71a3e75d8bb77e20fe987edd8d38aff4e12555a5d
d1579de13894cc53749d13634498f34b2814ec203481f38f6485690991963efc688dc2cfc32ec3a9609956094a2f05290f82827fc36822f0405d560afe35fad1
c985c90e830fff9457e2c5aa80851370e0425a70fbdb64ada6e7cdc391a18cc3d91bf9458cc2df9535e2745c8b375ac336ceb48afeafb93a9adc7f7bedeebe0d
1fdb31c906bbcd77e46ad48509f3c3bdbf3f31291caf3663526ac06e611ac060757ac86a2bcbfc05308f61107f1b90c8e0cde779d836e738b7ede4d279fb2c98
13142c038a62aa150aa66cfdd7abddd7d37d05aff6092333fb90342d701d1b9d264a93345a873ca2d0c8de2544e8267ed2555a4deb0b9a9adc35340873617d24
$CDNENCFINISH
.ENDS COMPHYS_BASIC_GEN
*$
.SUBCKT COMPHYS2_BASIC_GEN INP INM HYS OUT PARAMS: VDD=1 VSS=0 VTHRESH=0.5	
+ T=10
$CDNENCSTART
eee8c5c7a2bc4b01f045f303678664e7916da0bae22e8cb0bba041dd67c69ce448ea70148a9ac1670c8926c1ac5057c8ccfcd77bf87ca9dc992c008e3142f52f
9132b7121104d4358be44c41ab888f41b6e3a1568843d8670024d804c4775bfd4a40ff3c1bc4ce1e8fed7716d279a0e4aa8184d9e000f1d9af98308d4a335f89
0c881b9f157fe5ecac12f84a4e2deb016b574213c15e8d8904d73209bd6cb354e07469d76c73f504727902e71a3e75d849b9ab5e07010eebdcf6fce07e533960
4d5b1b73307b1303bf3f31291caf3663526ac06e611ac060757ac86a2bcbfc05308f61107f1b90c8e0cde779d836e73815efa7119dafaaa750ddd5d8bc8987b4
d1579de13894cc53749d13634498f34b2814ec203481f38fbc89d7217cff8ae439549005768d832e609956094a2f05290f82827fc36822f0405d560afe35fad1
c985c90e830fff9457e2c5aa80851370e0425a70fbdb64ada6e7cdc391a18cc3d91bf9458cc2df9535e2745c8b375ac336ceb48afeafb93a9adc7f7bedeebe0d
f9ba76f060d2ab54974b4c9bd064e1d9d37d05aff6092333fb90342d701d1b9d264a93345a873ca2d0c8de2544e8267ed2555a4deb0b9a9adc35340873617d24
13142c038a62aa155e75448842b9d2240024d804c4775bfd4a40ff3c1bc4ce1e8fed7716d279a0e4aa8184d9e000f1d99d74d043bbbafe51975a11649c54fb91
eb5079b5f31cc8a48efe6fd309740cfd0024d804c4775bfd4a40ff3c1bc4ce1e8fed7716d279a0e4aa8184d9e000f1d99d74d043bbbafe51975a11649c54fb91
$CDNENCFINISH
.ENDS COMPHYS2_BASIC_GEN
*$
.SUBCKT AND2_BASIC_GEN A B Y PARAMS: VDD=1 VSS=0 VTHRESH=0.5 
$CDNENCSTART
eee8c5c7a2bc4b01f045f303678664e7916da0bae22e8cb0bba041dd67c69ce448ea70148a9ac1670c8926c1ac5057c8ccfcd77bf87ca9dc992c008e3142f52f
f305b7cfa07651615a9037c8c42a602b94aebb18efc1b73c4a0534bc16c6b751d67091752c09698a1541fe9d381cc675621f57e8bf9b586eaa64a2fc08c3c2cd
ce312808b0a91175dcf306adebf133c01a6c7500361cb5a45652e10015a645e7e71f71e187584171baf8c6e0aab24bd3c8e0b5bb780fb1e49bb364c10a1e9048
bd9831b9881f0b92e8f02e93fcf213a8b577a971e6df3878de10149cf9a3173e9b1980ce17fa72f6a7f684fbbda73c6cda39f6ee4c18781d8d71c6ab3b003f5e
02f2959404528fbd9ad2dc2e0af5de0ebf3f31291caf3663526ac06e611ac060757ac86a2bcbfc05308f61107f1b90c8e0cde779d836e738b7ede4d279fb2c98
$CDNENCFINISH
.ENDS AND2_BASIC_GEN
*$
.SUBCKT AND3_BASIC_GEN A B C Y PARAMS: VDD=1 VSS=0 VTHRESH=0.5 
$CDNENCSTART
eee8c5c7a2bc4b01f045f303678664e7916da0bae22e8cb0bba041dd67c69ce448ea70148a9ac1670c8926c1ac5057c8ccfcd77bf87ca9dc992c008e3142f52f
f305b7cfa07651615a9037c8c42a602b94aebb18efc1b73c4a0534bc16c6b751d67091752c09698a1541fe9d381cc675621f57e8bf9b586eaa64a2fc08c3c2cd
ce312808b0a91175dcf306adebf133c05d69afe32f1d42cfcb33bec18cab84518c7e812bed1108d8d1d346020cc7f99bd0b24942103b0c19025c260a7c7b0b63
49482642e74b34f5dcf306adebf133c01a6c7500361cb5a45652e10015a645e7e71f71e187584171baf8c6e0aab24bd3c8e0b5bb780fb1e49bb364c10a1e9048
bd9831b9881f0b92e8f02e93fcf213a8b577a971e6df3878de10149cf9a3173e9b1980ce17fa72f6a7f684fbbda73c6cda39f6ee4c18781d8d71c6ab3b003f5e
02f2959404528fbd9ad2dc2e0af5de0ebf3f31291caf3663526ac06e611ac060757ac86a2bcbfc05308f61107f1b90c8e0cde779d836e738b7ede4d279fb2c98
$CDNENCFINISH
.ENDS AND3_BASIC_GEN
*$
.SUBCKT AND4_BASIC_GEN A B C D Y PARAMS: VDD=1 VSS=0 VTHRESH=0.5 
$CDNENCSTART
eee8c5c7a2bc4b01f045f303678664e7916da0bae22e8cb0bba041dd67c69ce448ea70148a9ac1670c8926c1ac5057c8ccfcd77bf87ca9dc992c008e3142f52f
f305b7cfa07651615a9037c8c42a602b94aebb18efc1b73c4a0534bc16c6b751d67091752c09698a1541fe9d381cc675621f57e8bf9b586eaa64a2fc08c3c2cd
ce312808b0a91175dcf306adebf133c05d69afe32f1d42cfcb33bec18cab84518c7e812bed1108d8d1d346020cc7f99bd0b24942103b0c19025c260a7c7b0b63
49482642e74b34f5dcf306adebf133c05d69afe32f1d42cfcb33bec18cab84518c7e812bed1108d8d1d346020cc7f99bd0b24942103b0c19025c260a7c7b0b63
558aa0970ce534bbdcf306adebf133c01a6c7500361cb5a45652e10015a645e7e71f71e187584171baf8c6e0aab24bd3c8e0b5bb780fb1e49bb364c10a1e9048
bd9831b9881f0b92e8f02e93fcf213a8b577a971e6df3878de10149cf9a3173e9b1980ce17fa72f6a7f684fbbda73c6cda39f6ee4c18781d8d71c6ab3b003f5e
02f2959404528fbd9ad2dc2e0af5de0ebf3f31291caf3663526ac06e611ac060757ac86a2bcbfc05308f61107f1b90c8e0cde779d836e738b7ede4d279fb2c98
$CDNENCFINISH
.ENDS AND4_BASIC_GEN
*$
.SUBCKT NAND2_BASIC_GEN A B Y PARAMS: VDD=1 VSS=0 VTHRESH=0.5 
$CDNENCSTART
eee8c5c7a2bc4b01f045f303678664e7916da0bae22e8cb0bba041dd67c69ce448ea70148a9ac1670c8926c1ac5057c8ccfcd77bf87ca9dc992c008e3142f52f
f305b7cfa07651615a9037c8c42a602b94aebb18efc1b73c4a0534bc16c6b751d67091752c09698a1541fe9d381cc675621f57e8bf9b586eaa64a2fc08c3c2cd
ce312808b0a91175dcf306adebf133c03f0d1e907c0bf31f0104c14ab5ddc9bee71f71e187584171baf8c6e0aab24bd3c8e0b5bb780fb1e49bb364c10a1e9048
bd9831b9881f0b92e8f02e93fcf213a8b577a971e6df3878de10149cf9a3173e9b1980ce17fa72f6a7f684fbbda73c6cda39f6ee4c18781d8d71c6ab3b003f5e
02f2959404528fbd9ad2dc2e0af5de0ebf3f31291caf3663526ac06e611ac060757ac86a2bcbfc05308f61107f1b90c8e0cde779d836e738b7ede4d279fb2c98
$CDNENCFINISH
.ENDS NAND2_BASIC_GEN
*$
.SUBCKT NAND3_BASIC_GEN A B C Y PARAMS: VDD=1 VSS=0 VTHRESH=0.5 
$CDNENCSTART
eee8c5c7a2bc4b01f045f303678664e7916da0bae22e8cb0bba041dd67c69ce448ea70148a9ac1670c8926c1ac5057c8ccfcd77bf87ca9dc992c008e3142f52f
f305b7cfa07651615a9037c8c42a602b94aebb18efc1b73c4a0534bc16c6b751d67091752c09698a1541fe9d381cc675621f57e8bf9b586eaa64a2fc08c3c2cd
ce312808b0a91175dcf306adebf133c05d69afe32f1d42cfcb33bec18cab84518c7e812bed1108d8d1d346020cc7f99bd0b24942103b0c19025c260a7c7b0b63
49482642e74b34f5dcf306adebf133c03f0d1e907c0bf31f0104c14ab5ddc9bee71f71e187584171baf8c6e0aab24bd3c8e0b5bb780fb1e49bb364c10a1e9048
bd9831b9881f0b92e8f02e93fcf213a8b577a971e6df3878de10149cf9a3173e9b1980ce17fa72f6a7f684fbbda73c6cda39f6ee4c18781d8d71c6ab3b003f5e
02f2959404528fbd9ad2dc2e0af5de0ebf3f31291caf3663526ac06e611ac060757ac86a2bcbfc05308f61107f1b90c8e0cde779d836e738b7ede4d279fb2c98
$CDNENCFINISH
.ENDS NAND3_BASIC_GEN
*$
.SUBCKT NAND4_BASIC_GEN A B C D Y PARAMS: VDD=1 VSS=0 VTHRESH=0.5 
$CDNENCSTART
eee8c5c7a2bc4b01f045f303678664e7916da0bae22e8cb0bba041dd67c69ce448ea70148a9ac1670c8926c1ac5057c8ccfcd77bf87ca9dc992c008e3142f52f
f305b7cfa07651615a9037c8c42a602b94aebb18efc1b73c4a0534bc16c6b751d67091752c09698a1541fe9d381cc675621f57e8bf9b586eaa64a2fc08c3c2cd
ce312808b0a91175dcf306adebf133c05d69afe32f1d42cfcb33bec18cab84518c7e812bed1108d8d1d346020cc7f99bd0b24942103b0c19025c260a7c7b0b63
49482642e74b34f5dcf306adebf133c05d69afe32f1d42cfcb33bec18cab84518c7e812bed1108d8d1d346020cc7f99bd0b24942103b0c19025c260a7c7b0b63
558aa0970ce534bbdcf306adebf133c03f0d1e907c0bf31f0104c14ab5ddc9bee71f71e187584171baf8c6e0aab24bd3c8e0b5bb780fb1e49bb364c10a1e9048
bd9831b9881f0b92e8f02e93fcf213a8b577a971e6df3878de10149cf9a3173e9b1980ce17fa72f6a7f684fbbda73c6cda39f6ee4c18781d8d71c6ab3b003f5e
02f2959404528fbd9ad2dc2e0af5de0ebf3f31291caf3663526ac06e611ac060757ac86a2bcbfc05308f61107f1b90c8e0cde779d836e738b7ede4d279fb2c98
$CDNENCFINISH
.ENDS NAND4_BASIC_GEN
*$
.SUBCKT OR2_BASIC_GEN A B Y PARAMS: VDD=1 VSS=0 VTHRESH=0.5 
$CDNENCSTART
eee8c5c7a2bc4b01f045f303678664e7916da0bae22e8cb0bba041dd67c69ce448ea70148a9ac1670c8926c1ac5057c8ccfcd77bf87ca9dc992c008e3142f52f
f305b7cfa07651615a9037c8c42a602b94aebb18efc1b73c4a0534bc16c6b751d67091752c09698a1541fe9d381cc67513d1669f9b59f945aa64a2fc08c3c2cd
ce312808b0a91175dcf306adebf133c01a6c7500361cb5a45652e10015a645e7e71f71e187584171baf8c6e0aab24bd3c8e0b5bb780fb1e49bb364c10a1e9048
bd9831b9881f0b92e8f02e93fcf213a8b577a971e6df3878de10149cf9a3173e9b1980ce17fa72f6a7f684fbbda73c6cda39f6ee4c18781d8d71c6ab3b003f5e
02f2959404528fbd9ad2dc2e0af5de0ebf3f31291caf3663526ac06e611ac060757ac86a2bcbfc05308f61107f1b90c8e0cde779d836e738b7ede4d279fb2c98
$CDNENCFINISH
.ENDS OR2_BASIC_GEN
*$
.SUBCKT OR3_BASIC_GEN A B C Y PARAMS: VDD=1 VSS=0 VTHRESH=0.5 
$CDNENCSTART
eee8c5c7a2bc4b01f045f303678664e7916da0bae22e8cb0bba041dd67c69ce448ea70148a9ac1670c8926c1ac5057c8ccfcd77bf87ca9dc992c008e3142f52f
f305b7cfa07651615a9037c8c42a602b94aebb18efc1b73c4a0534bc16c6b751d67091752c09698a1541fe9d381cc67513d1669f9b59f945aa64a2fc08c3c2cd
ce312808b0a91175dcf306adebf133c08adb6aa41a95795ecb33bec18cab84518c7e812bed1108d8d1d346020cc7f99bd0b24942103b0c19025c260a7c7b0b63
49482642e74b34f5dcf306adebf133c01a6c7500361cb5a45652e10015a645e7e71f71e187584171baf8c6e0aab24bd3c8e0b5bb780fb1e49bb364c10a1e9048
bd9831b9881f0b92e8f02e93fcf213a8b577a971e6df3878de10149cf9a3173e9b1980ce17fa72f6a7f684fbbda73c6cda39f6ee4c18781d8d71c6ab3b003f5e
02f2959404528fbd9ad2dc2e0af5de0ebf3f31291caf3663526ac06e611ac060757ac86a2bcbfc05308f61107f1b90c8e0cde779d836e738b7ede4d279fb2c98
$CDNENCFINISH
.ENDS OR3_BASIC_GEN
*$
.SUBCKT OR4_BASIC_GEN A B C D Y PARAMS: VDD=1 VSS=0 VTHRESH=0.5 
$CDNENCSTART
eee8c5c7a2bc4b01f045f303678664e7916da0bae22e8cb0bba041dd67c69ce448ea70148a9ac1670c8926c1ac5057c8ccfcd77bf87ca9dc992c008e3142f52f
f305b7cfa07651615a9037c8c42a602b94aebb18efc1b73c4a0534bc16c6b751d67091752c09698a1541fe9d381cc67513d1669f9b59f945aa64a2fc08c3c2cd
ce312808b0a91175dcf306adebf133c08adb6aa41a95795ecb33bec18cab84518c7e812bed1108d8d1d346020cc7f99bd0b24942103b0c19025c260a7c7b0b63
49482642e74b34f5dcf306adebf133c08adb6aa41a95795ecb33bec18cab84518c7e812bed1108d8d1d346020cc7f99bd0b24942103b0c19025c260a7c7b0b63
558aa0970ce534bbdcf306adebf133c01a6c7500361cb5a45652e10015a645e7e71f71e187584171baf8c6e0aab24bd3c8e0b5bb780fb1e49bb364c10a1e9048
bd9831b9881f0b92e8f02e93fcf213a8b577a971e6df3878de10149cf9a3173e9b1980ce17fa72f6a7f684fbbda73c6cda39f6ee4c18781d8d71c6ab3b003f5e
02f2959404528fbd9ad2dc2e0af5de0ebf3f31291caf3663526ac06e611ac060757ac86a2bcbfc05308f61107f1b90c8e0cde779d836e738b7ede4d279fb2c98
$CDNENCFINISH
.ENDS OR4_BASIC_GEN
*$
.SUBCKT NOR2_BASIC_GEN A B Y PARAMS: VDD=1 VSS=0 VTHRESH=0.5 
$CDNENCSTART
eee8c5c7a2bc4b01f045f303678664e7916da0bae22e8cb0bba041dd67c69ce448ea70148a9ac1670c8926c1ac5057c8ccfcd77bf87ca9dc992c008e3142f52f
f305b7cfa07651615a9037c8c42a602b94aebb18efc1b73c4a0534bc16c6b751d67091752c09698a1541fe9d381cc67513d1669f9b59f945aa64a2fc08c3c2cd
ce312808b0a91175dcf306adebf133c03f0d1e907c0bf31f0104c14ab5ddc9bee71f71e187584171baf8c6e0aab24bd3c8e0b5bb780fb1e49bb364c10a1e9048
bd9831b9881f0b92e8f02e93fcf213a8b577a971e6df3878de10149cf9a3173e9b1980ce17fa72f6a7f684fbbda73c6cda39f6ee4c18781d8d71c6ab3b003f5e
02f2959404528fbd9ad2dc2e0af5de0ebf3f31291caf3663526ac06e611ac060757ac86a2bcbfc05308f61107f1b90c8e0cde779d836e738b7ede4d279fb2c98
$CDNENCFINISH
.ENDS NOR2_BASIC_GEN
*$
.SUBCKT NOR3_BASIC_GEN A B C Y PARAMS: VDD=1 VSS=0 VTHRESH=0.5 
$CDNENCSTART
eee8c5c7a2bc4b01f045f303678664e7916da0bae22e8cb0bba041dd67c69ce448ea70148a9ac1670c8926c1ac5057c8ccfcd77bf87ca9dc992c008e3142f52f
f305b7cfa07651615a9037c8c42a602b94aebb18efc1b73c4a0534bc16c6b751d67091752c09698a1541fe9d381cc67513d1669f9b59f945aa64a2fc08c3c2cd
ce312808b0a91175dcf306adebf133c08adb6aa41a95795ecb33bec18cab84518c7e812bed1108d8d1d346020cc7f99bd0b24942103b0c19025c260a7c7b0b63
49482642e74b34f5dcf306adebf133c03f0d1e907c0bf31f0104c14ab5ddc9bee71f71e187584171baf8c6e0aab24bd3c8e0b5bb780fb1e49bb364c10a1e9048
bd9831b9881f0b92e8f02e93fcf213a8b577a971e6df3878de10149cf9a3173e9b1980ce17fa72f6a7f684fbbda73c6cda39f6ee4c18781d8d71c6ab3b003f5e
02f2959404528fbd9ad2dc2e0af5de0ebf3f31291caf3663526ac06e611ac060757ac86a2bcbfc05308f61107f1b90c8e0cde779d836e738b7ede4d279fb2c98
$CDNENCFINISH
.ENDS NOR3_BASIC_GEN
*$
.SUBCKT NOR4_BASIC_GEN A B C D Y PARAMS: VDD=1 VSS=0 VTHRESH=0.5 
$CDNENCSTART
eee8c5c7a2bc4b01f045f303678664e7916da0bae22e8cb0bba041dd67c69ce448ea70148a9ac1670c8926c1ac5057c8ccfcd77bf87ca9dc992c008e3142f52f
f305b7cfa07651615a9037c8c42a602b94aebb18efc1b73c4a0534bc16c6b751d67091752c09698a1541fe9d381cc67513d1669f9b59f945aa64a2fc08c3c2cd
ce312808b0a91175dcf306adebf133c08adb6aa41a95795ecb33bec18cab84518c7e812bed1108d8d1d346020cc7f99bd0b24942103b0c19025c260a7c7b0b63
49482642e74b34f5dcf306adebf133c08adb6aa41a95795ecb33bec18cab84518c7e812bed1108d8d1d346020cc7f99bd0b24942103b0c19025c260a7c7b0b63
558aa0970ce534bbdcf306adebf133c03f0d1e907c0bf31f0104c14ab5ddc9bee71f71e187584171baf8c6e0aab24bd3c8e0b5bb780fb1e49bb364c10a1e9048
bd9831b9881f0b92e8f02e93fcf213a8b577a971e6df3878de10149cf9a3173e9b1980ce17fa72f6a7f684fbbda73c6cda39f6ee4c18781d8d71c6ab3b003f5e
02f2959404528fbd9ad2dc2e0af5de0ebf3f31291caf3663526ac06e611ac060757ac86a2bcbfc05308f61107f1b90c8e0cde779d836e738b7ede4d279fb2c98
$CDNENCFINISH
.ENDS NOR4_BASIC_GEN
*$
.SUBCKT NOR5_BASIC_GEN A B C D E Y PARAMS: VDD=1 VSS=0 VTHRESH=0.5 
$CDNENCSTART
eee8c5c7a2bc4b01f045f303678664e7916da0bae22e8cb0bba041dd67c69ce448ea70148a9ac1670c8926c1ac5057c8ccfcd77bf87ca9dc992c008e3142f52f
f305b7cfa0765161ef0070e980448d49ce5ec34e6f8ad1ca4f07b1c061ae9cfe948eb9c40741303e181d4d919b4c89e7644126c9831a96bde7541210f46e2e1e
ce312808b0a91175dcf306adebf133c08adb6aa41a95795ecb33bec18cab84518c7e812bed1108d8d1d346020cc7f99bd0b24942103b0c19025c260a7c7b0b63
49482642e74b34f5dcf306adebf133c08adb6aa41a95795ecb33bec18cab84518c7e812bed1108d8d1d346020cc7f99bd0b24942103b0c19025c260a7c7b0b63
558aa0970ce534bbdcf306adebf133c08adb6aa41a95795ecb33bec18cab84518c7e812bed1108d8d1d346020cc7f99bd0b24942103b0c19025c260a7c7b0b63
bdac9a78f852a4f3dcf306adebf133c03f0d1e907c0bf31f0104c14ab5ddc9bee71f71e187584171baf8c6e0aab24bd3c8e0b5bb780fb1e49bb364c10a1e9048
bd9831b9881f0b92e8f02e93fcf213a8b577a971e6df3878de10149cf9a3173e9b1980ce17fa72f6a7f684fbbda73c6cda39f6ee4c18781d8d71c6ab3b003f5e
02f2959404528fbd9ad2dc2e0af5de0ebf3f31291caf3663526ac06e611ac060757ac86a2bcbfc05308f61107f1b90c8e0cde779d836e738b7ede4d279fb2c98
$CDNENCFINISH
.ENDS NOR5_BASIC_GEN
*$
.SUBCKT NOR6_BASIC_GEN A B C D E F Y PARAMS: VDD=1 VSS=0 VTHRESH=0.5 
$CDNENCSTART
eee8c5c7a2bc4b01f045f303678664e7916da0bae22e8cb0bba041dd67c69ce448ea70148a9ac1670c8926c1ac5057c8ccfcd77bf87ca9dc992c008e3142f52f
f305b7cfa0765161ef0070e980448d49ce5ec34e6f8ad1ca4f07b1c061ae9cfe948eb9c40741303e181d4d919b4c89e7644126c9831a96bde7541210f46e2e1e
ce312808b0a91175dcf306adebf133c08adb6aa41a95795ecb33bec18cab84518c7e812bed1108d8d1d346020cc7f99bd0b24942103b0c19025c260a7c7b0b63
49482642e74b34f5dcf306adebf133c08adb6aa41a95795ecb33bec18cab84518c7e812bed1108d8d1d346020cc7f99bd0b24942103b0c19025c260a7c7b0b63
558aa0970ce534bbdcf306adebf133c08adb6aa41a95795ecb33bec18cab84518c7e812bed1108d8d1d346020cc7f99bd0b24942103b0c19025c260a7c7b0b63
bdac9a78f852a4f3dcf306adebf133c08adb6aa41a95795ecb33bec18cab84518c7e812bed1108d8d1d346020cc7f99bd0b24942103b0c19025c260a7c7b0b63
6a60a2b3c07c62b9dcf306adebf133c03f0d1e907c0bf31f0104c14ab5ddc9bee71f71e187584171baf8c6e0aab24bd3c8e0b5bb780fb1e49bb364c10a1e9048
bd9831b9881f0b92e8f02e93fcf213a8b577a971e6df3878de10149cf9a3173e9b1980ce17fa72f6a7f684fbbda73c6cda39f6ee4c18781d8d71c6ab3b003f5e
02f2959404528fbd9ad2dc2e0af5de0ebf3f31291caf3663526ac06e611ac060757ac86a2bcbfc05308f61107f1b90c8e0cde779d836e738b7ede4d279fb2c98
$CDNENCFINISH
.ENDS NOR6_BASIC_GEN
*$
.SUBCKT INV_BASIC_GEN A  Y PARAMS: VDD=1 VSS=0 VTHRESH=0.5 
$CDNENCSTART
eee8c5c7a2bc4b01f045f303678664e7916da0bae22e8cb0bba041dd67c69ce448ea70148a9ac1670c8926c1ac5057c8ccfcd77bf87ca9dc992c008e3142f52f
f305b7cfa07651615a9037c8c42a602b94aebb18efc1b73c4a0534bc16c6b751d67091752c09698a1541fe9d381cc675040397452ddd0415992c008e3142f52f
97a44fd04201403ec4d5e8dbd1cb68c50024d804c4775bfd4a40ff3c1bc4ce1e8fed7716d279a0e4aa8184d9e000f1d99d74d043bbbafe51975a11649c54fb91
bd9831b9881f0b92e8f02e93fcf213a8b577a971e6df3878de10149cf9a3173e9b1980ce17fa72f6a7f684fbbda73c6cda39f6ee4c18781d8d71c6ab3b003f5e
02f2959404528fbd9ad2dc2e0af5de0ebf3f31291caf3663526ac06e611ac060757ac86a2bcbfc05308f61107f1b90c8e0cde779d836e738b7ede4d279fb2c98
$CDNENCFINISH
.ENDS INV_BASIC_GEN
*$
.SUBCKT XOR2_BASIC_GEN A B Y PARAMS: VDD=1 VSS=0 VTHRESH=0.5 
$CDNENCSTART
eee8c5c7a2bc4b01f045f303678664e7916da0bae22e8cb0bba041dd67c69ce448ea70148a9ac1670c8926c1ac5057c8ccfcd77bf87ca9dc992c008e3142f52f
f305b7cfa0765161492f206f537e28b38492e52ca99071372a4b8dedaaff0e2c9b0e7c0027d2abb949e0e0781481636abf1ee911780421dd992c008e3142f52f
ce312808b0a91175dcf306adebf133c01a6c7500361cb5a45652e10015a645e7e71f71e187584171baf8c6e0aab24bd3c8e0b5bb780fb1e49bb364c10a1e9048
bd9831b9881f0b92e8f02e93fcf213a8b577a971e6df3878de10149cf9a3173e9b1980ce17fa72f6a7f684fbbda73c6cda39f6ee4c18781d8d71c6ab3b003f5e
02f2959404528fbd9ad2dc2e0af5de0ebf3f31291caf3663526ac06e611ac060757ac86a2bcbfc05308f61107f1b90c8e0cde779d836e738b7ede4d279fb2c98
$CDNENCFINISH
.ENDS XOR2_BASIC_GEN
*$
.SUBCKT XNOR2_BASIC_GEN A B Y PARAMS: VDD=1 VSS=0 VTHRESH=0.5 
$CDNENCSTART
eee8c5c7a2bc4b01f045f303678664e7916da0bae22e8cb0bba041dd67c69ce448ea70148a9ac1670c8926c1ac5057c8ccfcd77bf87ca9dc992c008e3142f52f
f305b7cfa0765161492f206f537e28b38492e52ca99071372a4b8dedaaff0e2c9b0e7c0027d2abb949e0e0781481636abf1ee911780421dd992c008e3142f52f
ce312808b0a91175dcf306adebf133c03f0d1e907c0bf31f0104c14ab5ddc9bee71f71e187584171baf8c6e0aab24bd3c8e0b5bb780fb1e49bb364c10a1e9048
bd9831b9881f0b92e8f02e93fcf213a8b577a971e6df3878de10149cf9a3173e9b1980ce17fa72f6a7f684fbbda73c6cda39f6ee4c18781d8d71c6ab3b003f5e
02f2959404528fbd9ad2dc2e0af5de0ebf3f31291caf3663526ac06e611ac060757ac86a2bcbfc05308f61107f1b90c8e0cde779d836e738b7ede4d279fb2c98
$CDNENCFINISH
.ENDS XNOR2_BASIC_GEN
*$
.SUBCKT MUX2_BASIC_GEN A B S Y PARAMS: VDD=1 VSS=0 VTHRESH=0.5 
$CDNENCSTART
eee8c5c7a2bc4b01f045f303678664e7916da0bae22e8cb0bba041dd67c69ce448ea70148a9ac1670c8926c1ac5057c8ccfcd77bf87ca9dc992c008e3142f52f
f305b7cfa0765161492f206f537e28b38492e52ca99071378fef95ad867776d99b0e7c0027d2abb9e987c4591ee4bd2e0024d804c4775bfdeafeeeaf5cfc0f05
d5c1d990d4a5ccdb03d5eef6b3061dfaa3302d6afe9c36164a5351eee156b22f1330d0699ed6603e6e5a6747696bfca9c2992872b904453e0f73d879b948af40
bd9831b9881f0b92e8f02e93fcf213a8b577a971e6df3878de10149cf9a3173e9b1980ce17fa72f6a7f684fbbda73c6cda39f6ee4c18781d8d71c6ab3b003f5e
02f2959404528fbd9ad2dc2e0af5de0ebf3f31291caf3663526ac06e611ac060757ac86a2bcbfc05308f61107f1b90c8e0cde779d836e738b7ede4d279fb2c98
$CDNENCFINISH
.ENDS MUX2_BASIC_GEN
*$